IEEE data/014_bus/ieee/014ieee.DAT
 00/00/01                      100.0  0    0 0                                                                                                                                                                                                                                                             
BUS DATA FOLLOWS                   14 ITEMS
   1 BUS-1   100   1  1  3 1.06  0.     0.       0.        232.3859 -16.8888 100.    1.06   999900 -99990    0.      0.        0                                                                                                                                                                            
   2 BUS-2   100   1  1  2 1.045 -4.98  21.7     12.7      40.     42.39645 100.    1.045   50.   -40.      0.      0.        0                                                                                                                                                                            
   3 BUS-3   100   1  1  2 1.01  -12.71 94.2     19.       0.      23.39357 100.    1.01    40.     0.      0.      0.        0                                                                                                                                                                            
   4 BUS-4   100   1  1    1.018 -10.32 47.8     -3.9      0.      0.       100.    1.       0.     0.      0.      0.        0                                                                                                                                                                            
   5 BUS-5   100   1  1    1.02  -8.782 7.6      1.6       0.      0.       100.    1.       0.     0.      0.      0.        0                                                                                                                                                                            
   6 BUS-6   100   1  1  2 1.07  -14.22 11.2     7.5       0.      12.24036 100.    1.07    24.    -6.      0.      0.        0                                                                                                                                                                            
   7 BUS-7   100   1  1    1.062 -13.36 0.       0.        0.      0.       100.    1.       0.     0.      0.      0.        0                                                                                                                                                                            
   8 BUS-8   100   1  1  2 1.09  -13.36 0.       0.        0.      17.3566  100.    1.09    24.    -6.      0.      0.        0                                                                                                                                                                            
   9 BUS-9   100   1  1    1.056 -14.94 29.5     16.6      0.      0.       100.    1.       0.     0.      0.      0.19      0                                                                                                                                                                            
  10 BUS-10  100   1  1    1.051 -15.1  9.       5.8       0.      0.       100.    1.       0.     0.      0.      0.        0                                                                                                                                                                            
  11 BUS-11  100   1  1    1.057 -14.79 3.5      1.8       0.      0.       100.    1.       0.     0.      0.      0.        0                                                                                                                                                                            
  12 BUS-12  100   1  1    1.055 -15.07 6.1      1.6       0.      0.       100.    1.       0.     0.      0.      0.        0                                                                                                                                                                            
  13 BUS-13  100   1  1    1.05  -15.15 13.5     5.8       0.      0.       100.    1.       0.     0.      0.      0.        0                                                                                                                                                                            
  14 BUS-14  100   1  1    1.035 -16.03 14.9     5.        0.      0.       100.    1.       0.     0.      0.      0.        0                                                                                                                                                                            
-999
BRANCH DATA FOLLOWS                   20 ITEMS
   5    6  1  1   2  0.        0.25202     0.     0    0     0      0    0  0.932  0      0      0       0      0      0                                                                                                                                                                                   
   4    7  1  1   2  0.        0.20912     0.     0    0     0      0    0  0.978  0      0      0       0      0      0                                                                                                                                                                                   
   4    9  1  1   2  0.        0.55618     0.     0    0     0      0    0  0.969  0      0      0       0      0      0                                                                                                                                                                                   
   1    2  1  1      0.01938   0.05917     0.0528 0    0     0      0    0  0      0      0      0       0      0      0                                                                                                                                                                                   
   2    3  1  1      0.04699   0.19797     0.0438 0    0     0      0    0  0      0      0      0       0      0      0                                                                                                                                                                                   
   2    4  1  1      0.05811   0.17632     0.0374 0    0     0      0    0  0      0      0      0       0      0      0                                                                                                                                                                                   
   1    5  1  1      0.05403   0.22304     0.0492 0    0     0      0    0  0      0      0      0       0      0      0                                                                                                                                                                                   
   2    5  1  1      0.05695   0.17388     0.034  0    0     0      0    0  0      0      0      0       0      0      0                                                                                                                                                                                   
   3    4  1  1      0.06701   0.17103     0.0346 0    0     0      0    0  0      0      0      0       0      0      0                                                                                                                                                                                   
   4    5  1  1      0.01335   0.04211     0.0128 0    0     0      0    0  0      0      0      0       0      0      0                                                                                                                                                                                   
   7    8  1  1      0.        0.17615     0.     0    0     0      0    0  0      0      0      0       0      0      0                                                                                                                                                                                   
   7    9  1  1      0.        0.11001     0.     0    0     0      0    0  0      0      0      0       0      0      0                                                                                                                                                                                   
   9   10  1  1      0.03181   0.0845      0.     0    0     0      0    0  0      0      0      0       0      0      0                                                                                                                                                                                   
   6   11  1  1      0.09498   0.1989      0.     0    0     0      0    0  0      0      0      0       0      0      0                                                                                                                                                                                   
   6   12  1  1      0.12291   0.25581     0.     0    0     0      0    0  0      0      0      0       0      0      0                                                                                                                                                                                   
   6   13  1  1      0.06615   0.13027     0.     0    0     0      0    0  0      0      0      0       0      0      0                                                                                                                                                                                   
   9   14  1  1      0.12711   0.27038     0.     0    0     0      0    0  0      0      0      0       0      0      0                                                                                                                                                                                   
  10   11  1  1      0.08205   0.19207     0.     0    0     0      0    0  0      0      0      0       0      0      0                                                                                                                                                                                   
  12   13  1  1      0.22092   0.19988     0.     0    0     0      0    0  0      0      0      0       0      0      0                                                                                                                                                                                   
  13   14  1  1      0.17093   0.34802     0.     0    0     0      0    0  0      0      0      0       0      0      0                                                                                                                                                                                   
-999
LOSS ZONES FOLLOWS   0 ITEMS
-99
INTERCHANGE DATA FOLLOWS      0 ITEMS
-9
TIE LINES FOLLOWS             0 ITEMS
-999
END OF DATA